<?xml version="1.0" encoding="UTF-8"?>

<!-- generated on Tue Mar 15 14:24:04 2022 by Eclipse SUMO duarouter Version v1_6_0+1335-599aaf00cc
<configuration xmlns:xsi="http://www.w3.org/2001/XMLSchema-instance" xsi:noNamespaceSchemaLocation="http://sumo.dlr.de/xsd/duarouterConfiguration.xsd">

    <input>
        <net-file value="gwalior1.net.xml"/>
        <route-files value="trips.trips.xml"/>
    </input>

    <output>
        <output-file value="map.rou.xml"/>
        <alternatives-output value="map.rou.alt.xml"/>
    </output>

    <time>
        <begin value="0"/>
        <end value="1000"/>
    </time>

    <report>
        <no-warnings value="true"/>
        <ignore-errors value="true"/>
        <no-step-log value="true"/>
    </report>

</configuration>
-->

<routes xmlns:xsi="http://www.w3.org/2001/XMLSchema-instance" xsi:noNamespaceSchemaLocation="http://sumo.dlr.de/xsd/routes_file.xsd">
    <vehicle id="1" depart="1.00">
        <route edges="547665360#2 -547665359#2 -547665359#1 -547665359#0 -171185159#7 -171185159#6 -171185159#5 R76 R74 R67 R69 451690840#3 -451690842"/>
    </vehicle>
    <vehicle id="2" depart="1.00">
        <route edges="99621717#0 99621717#1 99621717#2 99621717#3 384145607 384145608#0 384145608#1 384145606#0 R57 R55 R83 R80 R77 R74 R67 R69 451690840#3 -451690842"/>
    </vehicle>
    <vehicle id="3" depart="1.00">
        <route edges="R3 R62 R86 R42 R43 R50 R32 R35 R103"/>
    </vehicle>
    <vehicle id="4" depart="2.00">
        <route edges="R15 R36 R31 R49 R44 R41 R85 R61"/>
    </vehicle>
    <vehicle id="5" depart="2.00">
        <route edges="R61 R4"/>
    </vehicle>
    <vehicle id="6" depart="2.00">
        <route edges="R89 R42 R43 R45 379711248#2 379711248#3 379711248#4 508777085#0 508777085#1 -521511733#1 -521511733#0 521511735#1"/>
    </vehicle>
    <vehicle id="7" depart="3.00">
        <route edges="-521511798#1 -521511798#0 521511821#1 521511821#2 521511821#3 521511821#4 521511821#5 521511821#6 521511821#7 521511821#8 521511821#9 521511821#10 521511821#11 521511821#12 -508777391#1 -508777391#0 -508777085#3 -508777085#2 -508777085#1 -508777085#0 379711248#5 379711248#0 99621717#0 99621717#1 99621717#2 99621717#3 384145607 384145608#0 384145608#1 384145606#0 R57 R55 R83 R80 R77 R74 R67"/>
    </vehicle>
    <vehicle id="8" depart="6.00">
        <route edges="-547963935 -547963936#0 R70 R68 R73 R78 R79 R84 R56 R58 -384145606#0 -384145608#1 -384145608#0 -384145607 -99621717#3 -99621717#2 -99621717#1 -99621717#0 379711248#1 379711248#2 379711244#0 379711244#1"/>
    </vehicle>
    <vehicle id="10" depart="7.00">
        <route edges="-99621794#1 99621794#1 384145606#0 R57 R55 R83 R80 R81 R87 R86"/>
    </vehicle>
    <vehicle id="11" depart="8.00">
        <route edges="R45 379711248#2 379711248#3 379711248#4 379711248#5 379711248#0 99621717#0 99621717#1 99621717#2 99621717#3 384145607 384145608#0 384145608#1 384145606#0 R57 R55 R83 R80 R77 R75 -547665379#1"/>
    </vehicle>
    <vehicle id="12" depart="10.00">
        <route edges="-384145608#1 -384145608#0 -384145607 -99621717#3 -99621717#2 -99621717#1 -99621717#0 379711248#1 379711248#2 379711248#3 379711248#4 508777085#0 508777085#1 508777085#2 508777085#3 508777391#0 508777391#1 508777391#2"/>
    </vehicle>
    <vehicle id="13" depart="11.00">
        <route edges="R87 R88 R82 R77 R74 R72"/>
    </vehicle>
    <vehicle id="14" depart="12.00">
        <route edges="R1 R3 R65 R68 R73 R75 171185159#5 171185159#6 171185159#7 171185159#8 171185159#9 171185159#10 171185159#11 171185157#0 171185157#1"/>
    </vehicle>
    <vehicle id="16" depart="14.00">
        <route edges="-508777085#0 508777085#0 508777085#1 508777085#2 508777085#3 508777391#0 508777391#1 -521511821#12 -521511821#11 -521511821#10 -521511821#9 -521511821#8 -521511821#7 -521511821#6 -521511821#5 -521511821#4 -521511821#3 -521511821#2 -521511821#1 -521511821#0"/>
    </vehicle>
    <vehicle id="17" depart="15.00">
        <route edges="521511818#0 -521511808#2 -521511808#1 -521511808#0 -508777085#0 379711248#5 379711248#0 379711248#1 R46 R50 R32 R35 R103 -133305551#1 R97"/>
    </vehicle>
    <vehicle id="18" depart="16.00">
        <route edges="R42 R41 R85 R61 R4"/>
    </vehicle>
    <vehicle id="19" depart="17.00">
        <route edges="547665373#1 -547665373#1 547665377#0 547665379#0 -547665371#1 -547665371#0 -547665369#0 171185159#7 171185159#8 171185159#9 171185159#10 171185159#11 171185157#0 547667473"/>
    </vehicle>
    <vehicle id="20" depart="18.00">
        <route edges="R8 R38 R41 R85 R61 R65 R69 547963936#0 R71"/>
    </vehicle>
    <vehicle id="21" depart="19.00">
        <route edges="R5 R9 R10"/>
    </vehicle>
    <vehicle id="22" depart="20.00">
        <route edges="451690842 -451690840#3 R70 R68 R73 R78 R79 R84 R56 R58 -384145606#0 -384145608#1"/>
    </vehicle>
    <vehicle id="23" depart="21.00">
        <route edges="R72 -547963936#0 R70 R68 R73 R78 R81 R87"/>
    </vehicle>
    <vehicle id="25" depart="22.00">
        <route edges="547746545 -547746539#7 -547746539#6 -547746530#1 R11 R12"/>
    </vehicle>
    <vehicle id="26" depart="23.00">
        <route edges="R1 R5 R8 R38 R43 R45"/>
    </vehicle>
    <vehicle id="27" depart="23.00">
        <route edges="451690842 -451690840#3 R70 R66 R62 R86 R42 R43 R50 R32 R35 R103 -133305551#1 R97"/>
    </vehicle>
    <vehicle id="28" depart="24.00">
        <route edges="-547746549 -547746530#3 -547746530#2 -547746530#1 R11 R10 R8 R38 R43 R45 379711248#2 379711248#3 379711248#4 508777085#0 508777085#1 508777085#2 508777085#3 508777391#0 521511736"/>
    </vehicle>
    <vehicle id="29" depart="25.00">
        <route edges="-547746545 547746539#1 547746539#2 R11 R10 R8 R38 R43 R45 379711248#2 379711248#3 379711248#4 508777085#0 508777085#1 508777085#2 508777085#3 508777391#0 508777391#1 508777391#2 521511756#0 -521511756#0"/>
    </vehicle>
    <vehicle id="30" depart="25.00">
        <route edges="R8 R7"/>
    </vehicle>
    <vehicle id="32" depart="26.00">
        <route edges="-521539874#0 99621794#1 384145606#0 R57 R55 R83 R80 R81 R87 R86"/>
    </vehicle>
    <vehicle id="33" depart="27.00">
        <route edges="-521511799#0 521511821#2 521511821#3 521511821#4 521511821#5 521511821#6 521511821#7 521511821#8 521511821#9 521511821#10 521511821#11 521511821#12 -508777391#1 -508777391#0 -508777085#3 -508777085#2 -508777085#1 -508777085#0 379711248#5 379711248#0 99621717#0 99621717#1 99621717#2 99621717#3 384145607 384145608#0 384145608#1 384145606#0 R57 R55 R83 R80 R77 R75 171185159#5 171185159#6 547665369#0 547665369#1"/>
    </vehicle>
    <vehicle id="34" depart="28.00">
        <route edges="521539874#0 -521539874#0 99621794#1 -384145608#1 -384145608#0 -384145607 -99621717#3 -99621717#2 -99621717#1 -99621717#0 379711248#1 379711248#2 379711248#3 379711248#4 508777085#0 508777085#1 508777085#2 508777085#3 508777391#0 508777391#1 508777391#2 521511756#0 521511756#1 521511756#2 -521511739 521511739"/>
    </vehicle>
    <vehicle id="35" depart="29.00">
        <route edges="-547667474 -171185159#9 -171185159#8 -171185159#7 547665369#0 547665369#1 547665371#1 547665379#1"/>
    </vehicle>
    <vehicle id="36" depart="30.00">
        <route edges="R84 R83 R80 R77 R75 -547665379#1 -547665379#0 547665379#0"/>
    </vehicle>
    <vehicle id="37" depart="30.00">
        <route edges="R98 133305551#1 R104 R36 R31 R49 R44 R41 R85 R61 R65"/>
    </vehicle>
    <vehicle id="38" depart="31.00">
        <route edges="95658115 95658123#0 -95658123#0"/>
    </vehicle>
    <vehicle id="39" depart="32.00">
        <route edges="521511817#0 -521511817#0 -521511808#0 -508777085#0 379711248#5 379711248#0 379711248#1 R46 R50 R92 R93"/>
    </vehicle>
    <vehicle id="40" depart="34.00">
        <route edges="379711248#2 379711248#3 379711248#4 379711248#5 379711248#0 379711248#1 R46 R44 R41 R90"/>
    </vehicle>
    <vehicle id="42" depart="36.00">
        <route edges="R9 R10 R8 R38 R43 R45 379711248#2 379711248#3 379711248#4 508777085#0 508777085#1 508777085#2 508777085#3 508777391#0 508777391#1 -521511821#12 -521511821#11 -521511821#10 -521511821#9 -521511821#8 521511782 -521511782"/>
    </vehicle>
    <vehicle id="43" depart="36.00">
        <route edges="R17 R18 R15 R36"/>
    </vehicle>
    <vehicle id="44" depart="36.00">
        <route edges="-521511818#1 -521511808#2 -521511808#1 -521511808#0 -508777085#0 379711248#5 379711248#0 99621717#0 99621717#1 99621717#2 99621717#3 384145607 384145608#0 384145608#1 384145606#0 R57 R55 R83 R80 R77 R74"/>
    </vehicle>
    <vehicle id="45" depart="36.00">
        <route edges="R17 R23"/>
    </vehicle>
    <vehicle id="46" depart="38.00">
        <route edges="R41 R90 R82 R79 R84 R56 R58 -384145606#0 -99621794#1 -99621794#0"/>
    </vehicle>
    <vehicle id="47" depart="39.00">
        <route edges="547746530#1 -547746530#1 R11 R14 R15 R103 -133305551#1 R97 R98"/>
    </vehicle>
    <vehicle id="48" depart="40.00">
        <route edges="-547746539#4 -547746539#3 R11 R10 R8 R38 R41 R90 R82 R77 R75 171185159#5 171185159#6 171185159#7 171185159#8 171185159#9 171185159#10 171185159#11 171185157#0 171185157#1"/>
    </vehicle>
    <vehicle id="49" depart="41.00">
        <route edges="R64 R62 R86 R42 R37 R40"/>
    </vehicle>
    <vehicle id="50" depart="42.00">
        <route edges="R62 R88 R82 R79 R84 R56 R58 -384145606#0 -384145608#1 384145608#1"/>
    </vehicle>
    <vehicle id="51" depart="43.00">
        <route edges="-521511817#5 -521511817#4 521511815#0 521511813#0 -521511821#3 -521511821#2 -521511821#1 -521511821#0"/>
    </vehicle>
    <vehicle id="52" depart="44.00">
        <route edges="R3 R65 R68 R73 R75 171185159#5 171185159#6 171185159#7 171185159#8 171185159#9 171185159#10 171185159#11 171185157#0 171185157#1"/>
    </vehicle>
    <vehicle id="53" depart="45.00">
        <route edges="547665363#0 -547665361 -547665360#1 -547665359#1 -547665359#0 -171185159#7 -171185159#6 -171185159#5 171185159#5"/>
    </vehicle>
    <vehicle id="54" depart="45.00">
        <route edges="R5 R6 R3"/>
    </vehicle>
    <vehicle id="55" depart="46.00">
        <route edges="-521511741 521511742#1 -521511756#4 -521511756#3 -521511756#2 -521511756#1 -521511756#0 -508777391#2 -508777391#1 -508777391#0 -508777085#3 -508777085#2 -508777085#1 -508777085#0 379711248#5 379711248#0 99621717#0 99621717#1 99621717#2 99621717#3 384145607 384145608#0 384145608#1 384145606#0 R57 R55 R83 R80 R77 R74 R73"/>
    </vehicle>
    <vehicle id="56" depart="48.00">
        <route edges="-521539874#0 99621794#1 384145606#0 R57 R55 R83 R80 R77 R74 R67 R69 451690840#3 451690840#4 451690840#5 451690840#6"/>
    </vehicle>
    <vehicle id="58" depart="50.00">
        <route edges="R85 R61 R65 R69 R70"/>
    </vehicle>
    <vehicle id="59" depart="51.00">
        <route edges="R47 R52 R56 R58 -384145606#0 -384145608#1 -384145608#0 -384145607 -99621717#3 -99621717#2 -99621717#1 -99621717#0 379711248#1 379711248#2 379711248#3 379711248#4 508777085#0 521511808#0 521511808#1 521511808#2 -521511818#0 521511723"/>
    </vehicle>
    <vehicle id="60" depart="53.00">
        <route edges="R71 R73 R78 R81 R89 R42 R37 R7"/>
    </vehicle>
    <vehicle id="61" depart="53.00">
        <route edges="R62 R88 R82 R77 R75 171185159#5 171185159#6 171185159#7 171185159#8 171185159#9 547667474 547667475#1"/>
    </vehicle>
    <vehicle id="62" depart="54.00">
        <route edges="-171185159#5 R76 R78 R81 R89 R42 R37 R7 R9 R12 547746530#1 547746539#6 547746539#7 -547746545"/>
    </vehicle>
    <vehicle id="63" depart="56.00">
        <route edges="R90 R89 R42 R37 R7 R9 R12 547746530#1 547746530#2 -547746530#2"/>
    </vehicle>
    <vehicle id="64" depart="57.00">
        <route edges="547665373#0 547665373#1 -547665375#0 -451690840#3 R70 R66 R62 R86 R42 R43 R45"/>
    </vehicle>
    <vehicle id="65" depart="59.00">
        <route edges="R85 R86 R42 R37 R7 R9 R10"/>
    </vehicle>
    <vehicle id="66" depart="60.00">
        <route edges="R34 R31 R49 R45 379711248#2 379711248#3 379711248#4 508777085#0 521511808#0 521511808#1 521511808#2 -521511818#0 521511723"/>
    </vehicle>
    <vehicle id="67" depart="63.00">
        <route edges="547665360#0 -547665359#1 -547665359#0 -171185159#7 -171185159#6 -171185159#5 R76 R78 R81 R87 R86"/>
    </vehicle>
    <vehicle id="68" depart="64.00">
        <route edges="379711242#0 379711242#1 379711242#2 379711248#4 379711248#5 379711248#0 99621717#0 99621717#1 99621717#2 99621717#3 384145607 384145608#0 384145608#1 384145606#0 R57 R55 R83 R80 R77 R75 171185159#5 171185159#6 547665369#0"/>
    </vehicle>
    <vehicle id="69" depart="65.00">
        <route edges="547746543 -547746539#6 -547746530#1 R11 R10 R8 R38 R41 R90 R82 R77 R75 R76"/>
    </vehicle>
    <vehicle id="71" depart="67.00">
        <route edges="-547746530#1 R11 R10 R6 R3 R65 R69 451690840#3 451690840#4 451690840#5 -451690840#5"/>
    </vehicle>
    <vehicle id="72" depart="68.00">
        <route edges="547746545 -547746539#7 -547746539#6 -547746530#1 R11 R10 R6 R3 R65 R68"/>
    </vehicle>
    <vehicle id="73" depart="68.00">
        <route edges="547665356#1 -547665356#1 -547665356#0 -171185159#8 -171185159#7 -171185159#6 -171185159#5 R76 R78 R81 R89 R42 R43 R50 R32 R29 R27"/>
    </vehicle>
    <vehicle id="74" depart="68.00">
        <route edges="R4 R3 R65 R69 547963936#0 547963935"/>
    </vehicle>
    <vehicle id="75" depart="68.00">
        <route edges="R30 R31 R49 R44 R41 R90 R82 R77 R75 171185159#5 171185159#6 171185159#7 171185159#8 171185159#9 171185159#10 171185159#11 171185157#0 -171185157#0"/>
    </vehicle>
    <vehicle id="76" depart="69.00">
        <route edges="547665369#0 -547665369#0 -171185159#6 -171185159#5 R76 R78 R79 R84 R56 R58 -547669017#1"/>
    </vehicle>
    <vehicle id="78" depart="74.00">
        <route edges="R3 R4 R5"/>
    </vehicle>
    <vehicle id="79" depart="75.00">
        <route edges="171185159#9 171185159#10 171185159#11 171185159#12 171185159#13"/>
    </vehicle>
    <vehicle id="80" depart="76.00">
        <route edges="-642321527 -521539874#0 99621794#1 384145606#0 R57 R55 R83 R80 R77 R74 R67 R66 R4"/>
    </vehicle>
    <vehicle id="81" depart="76.00">
        <route edges="521707476#0 521707476#1 -99621717#2 -99621717#1 -99621717#0 379711248#1 R46 R44 R37 R7 R9 R10"/>
    </vehicle>
    <vehicle id="82" depart="77.00">
        <route edges="547665360#0 -547665359#1 -547665359#0 -171185159#7 -171185159#6 -171185159#5 R76 R78 R81 R89 R42 R37 R7 R8"/>
    </vehicle>
    <vehicle id="83" depart="78.00">
        <route edges="521511754 -521511756#5 -521511756#4 -521511756#3 -521511756#2 -521511756#1 -521511756#0 -508777391#2 -508777391#1 -508777391#0 -508777085#3 -508777085#2 -508777085#1 -508777085#0 379711248#5 379711248#0 99621717#0 99621717#1 99621717#2 99621717#3 384145607 384145608#0 384145608#1 384145606#0 R57 R55 R51 R48"/>
    </vehicle>
    <vehicle id="84" depart="80.00">
        <route edges="-547746545 547746539#1 547746539#2 R11 R10 R8 R38 R41 R90 R82 R77 R75 171185159#5 171185159#6 547665369#0 547665369#1 547665371#1"/>
    </vehicle>
    <vehicle id="85" depart="80.00">
        <route edges="521511723 -521511808#2 -521511808#1 -521511808#0 -508777085#0 379711248#5 379711248#0 379711248#1 R46 R44 R37 R38"/>
    </vehicle>
    <vehicle id="86" depart="81.00">
        <route edges="547746539#3 -547746539#3 R11 R10 R8 R38 R43 R45 379711248#2 379711248#3 379711248#4 379711248#5 379711248#0 99621717#0 99621717#1 99621717#2 -521707476#1"/>
    </vehicle>
    <vehicle id="87" depart="81.00">
        <route edges="521511821#0 521511821#1 521511821#2 521511821#3 521511821#4 521511821#5 521511821#6 521511821#7 521511821#8 521511821#9 521511821#10 521511821#11 521511821#12 -508777391#1 -508777391#0 -508777085#3 -508777085#2 -508777085#1 -508777085#0 379711248#5 379711248#0 379711248#1 R46 R50 R32 R35 R16 R17"/>
    </vehicle>
    <vehicle id="88" depart="82.00">
        <route edges="R3 R65 R68 R73 R75 171185159#5 171185159#6 171185159#7 547665359#0 547665359#1 547665359#2 -547665358#1"/>
    </vehicle>
    <vehicle id="90" depart="84.00">
        <route edges="-171185159#13 -171185159#12 -171185159#11 -171185159#10 -171185159#9 -171185159#8 -171185159#7 -171185159#6 -171185159#5 R76 R78 R81 R89 R42 R37 R7 R9 R10"/>
    </vehicle>
    <vehicle id="91" depart="86.00">
        <route edges="-171185159#13 -171185159#12 -171185159#11 -171185159#10 -171185159#9 -171185159#8 -171185159#7 547665369#0 547665369#1 547665371#1 -547665379#0 -547665377#0 -547665373#0"/>
    </vehicle>
    <vehicle id="92" depart="86.00">
        <route edges="R35 R16 R17"/>
    </vehicle>
    <vehicle id="93" depart="86.00">
        <route edges="R4 R5"/>
    </vehicle>
    <vehicle id="94" depart="87.00">
        <route edges="R20 R15 R36 R31 R49 R47 R48"/>
    </vehicle>
    <vehicle id="95" depart="87.00">
        <route edges="R62 R86 R42 R37 R7 R9"/>
    </vehicle>
    <vehicle id="96" depart="87.00">
        <route edges="-171185159#6 -171185159#5 R76 R78 R79 R84 R56 R58 -384145606#0 -384145608#1 -384145608#0 -384145607 -99621717#3 -99621717#2 -99621717#1 -99621717#0 379711248#1 379711248#2 379711248#3 379711248#4 508777085#0"/>
    </vehicle>
    <vehicle id="97" depart="88.00">
        <route edges="R4 R5 R8 R34 R29 R26"/>
    </vehicle>
    <vehicle id="98" depart="89.00">
        <route edges="R5 R6 R3 R65 R68"/>
    </vehicle>
    <vehicle id="99" depart="89.00">
        <route edges="R94 R91 R49 R45 379711248#2 379711248#3 379711248#4 379711248#5 379711248#0 99621717#0 99621717#1 99621717#2 99621717#3 384145607 384145608#0 384145608#1 384145606#0 -547669017#1 R59"/>
    </vehicle>
    <vehicle id="100" depart="91.00">
        <route edges="R9 R10 R6 R3"/>
    </vehicle>
    <vehicle id="101" depart="95.00">
        <route edges="R72 -547963936#0 R70 R68 R73 R78 R79 R84 R56 R58 -384145606#0 -99621794#1 -99621794#0"/>
    </vehicle>
    <vehicle id="102" depart="96.00">
        <route edges="R68 R73 R78 R81 R89 R42 R37 R7 R9 R12 547746530#1 -547746539#5 -547746536#0"/>
    </vehicle>
    <vehicle id="103" depart="96.00">
        <route edges="R6 R5 R8 R38 R43 R45 379711248#2 379711248#3 379711248#4 508777085#0 508777085#1 508777085#2 508777085#3 508777391#0 508777391#1 508777391#2 521511756#0 521511756#1 521511756#2 521511756#3 -521511740 521511740"/>
    </vehicle>
    <vehicle id="104" depart="97.00">
        <route edges="R88 R89 R42 R43 R45 379711248#2 379711248#3 379711248#4 508777085#0 508777085#1 508777085#2 508777085#3 508777391#0 508777391#1 -521511821#12 521511786 -521511803#1 -521511803#0"/>
    </vehicle>
    <vehicle id="105" depart="99.00">
        <route edges="-547746547 -547746530#2 -547746530#1 R11 R10 R6 R3 R4"/>
    </vehicle>
    <vehicle id="106" depart="102.00">
        <route edges="-547667474 -171185159#9 -171185159#8 -171185159#7 -171185159#6 -171185159#5 R76 R78 R79 R84 R56 R58 -384145606#0 -384145608#1 -384145608#0 -384145607 -99621717#3 -99621717#2 -99621717#1 -99621717#0 379711248#1 379711248#2 379711248#3 379711248#4 508777085#0 508777085#1 508777085#2 508777085#3 508777391#0 508777391#1 -521511821#12 -521511821#11 -521511821#10 -521511821#9 -521511821#8"/>
    </vehicle>
    <vehicle id="107" depart="103.00">
        <route edges="-547746539#7 -547746543 547746543"/>
    </vehicle>
    <vehicle id="108" depart="104.00">
        <route edges="-547667475#1 -547667474 -171185159#9 -171185159#8 -171185159#7 -171185159#6 -171185159#5 R76 R78 R79 R84 R56 R58 -384145606#0 -384145608#1 -384145608#0 -384145607 -99621717#3"/>
    </vehicle>
    <vehicle id="109" depart="104.00">
        <route edges="-171185157#1 -171185157#0 -171185159#11 -171185159#10 -171185159#9 -171185159#8 -171185159#7 -171185159#6 -171185159#5 R76 R78 R79 R84 R56 R58 -384145606#0 -99621794#1 99621794#1"/>
    </vehicle>
    <vehicle id="110" depart="105.00">
        <route edges="R71 R73 R78 R81 R89 R42 R37 R7 R9 R12 547746530#1 547746530#2 547746530#3 547746549"/>
    </vehicle>
    <vehicle id="111" depart="107.00">
        <route edges="-508777391#3 -508777391#2 -508777391#1 -508777391#0 -508777085#3 -508777085#2 -508777085#1 -508777085#0 379711248#5 379711248#0 379711248#1 R46 R44 R41 R85 R86"/>
    </vehicle>
    <vehicle id="112" depart="108.00">
        <route edges="R28 R30 R31 R49 R45 379711248#2 379711248#3 379711248#4 508777085#0 521511808#0 521511808#1 521511808#2 -521511723"/>
    </vehicle>
    <vehicle id="113" depart="108.00">
        <route edges="R1 R3 R65 R69 451690840#3 451690840#4 451690840#5"/>
    </vehicle>
    <vehicle id="114" depart="108.00">
        <route edges="R5 R6 R2"/>
    </vehicle>
    <vehicle id="115" depart="109.00">
        <route edges="99621794#0 99621794#1 384145606#0 R57 R55 R83 R80 R77 R75 -547665379#1 547665379#1"/>
    </vehicle>
    <vehicle id="116" depart="111.00">
        <route edges="-547746539#3 R11 R14 R15 R36 R31 R32"/>
    </vehicle>
    <vehicle id="117" depart="111.00">
        <route edges="-547665375#0 -451690840#3 R70 R68 R73 R78 R79 R84 R56 R58 -384145606#0 -384145608#1 -384145608#0 -384145607 -99621717#3 -99621717#2 -99621717#1 -99621717#0 379711248#1 379711248#2 379711248#3 379711248#4 508777085#0 521511808#0 521511808#1 521511808#2 -521511818#0 -521511773"/>
    </vehicle>
    <vehicle id="118" depart="112.00">
        <route edges="547667474 -547667474 -171185159#9 -171185159#8 -171185159#7 -171185159#6 -171185159#5 R76 R74 R67 R66 R4 R2"/>
    </vehicle>
    <vehicle id="119" depart="112.00">
        <route edges="R4 R5 R8 R40"/>
    </vehicle>
    <vehicle id="120" depart="115.00">
        <route edges="-547665371#0 547665371#0 547665371#1 -547665379#0 -547665377#0 -547665373#0 451690840#5 451690840#6"/>
    </vehicle>
    <vehicle id="121" depart="116.00">
        <route edges="R39 R38 R41 R85 R61 R4"/>
    </vehicle>
    <vehicle id="122" depart="117.00">
        <route edges="-451690840#6 -451690840#5 547665373#0 547665377#0 547665379#0 -547665371#1 -547665371#0 547665371#0"/>
    </vehicle>
    <vehicle id="123" depart="118.00">
        <route edges="R9 R10 R6 R3 R65"/>
    </vehicle>
    <vehicle id="124" depart="120.00">
        <route edges="R5 R9 R12 547746530#1 547746530#2 547746530#3 547746530#4 547746534#1"/>
    </vehicle>
    <vehicle id="125" depart="120.00">
        <route edges="R14 R13 R10 R6 R3"/>
    </vehicle>
    <vehicle id="126" depart="121.00">
        <route edges="521511741 -521511756#5 -521511756#4 -521511756#3 -521511756#2 -521511756#1 -521511756#0 -508777391#2 -508777391#1 -508777391#0 -508777085#3 -521511732 521511732"/>
    </vehicle>
    <vehicle id="127" depart="126.00">
        <route edges="521511783 -521511783 521511821#9 521511821#10 521511821#11 521511821#12 -508777391#1 -508777391#0 -508777085#3 -508777085#2 -508777085#1 -508777085#0 379711248#5 379711248#0 379711248#1 R46 R44 R37 R7 R6 R5"/>
    </vehicle>
    <vehicle id="128" depart="126.00">
        <route edges="R1 R5 R8 R38 R41 R85"/>
    </vehicle>
    <vehicle id="129" depart="127.00">
        <route edges="R90 R87 R61 R4 R2"/>
    </vehicle>
    <vehicle id="130" depart="127.00">
        <route edges="-547665360#2 -547665360#1 -547665359#1 -547665359#0 -171185159#7 -171185159#6 -171185159#5 R76 R78 R81 R89 R42 R43 R50 R32 R35 R16 R13"/>
    </vehicle>
    <vehicle id="131" depart="128.00">
        <route edges="R96 R91 R49 R44 R37 R7 R8"/>
    </vehicle>
    <vehicle id="133" depart="130.00">
        <route edges="R1 R5 R8 R38 R43 R45 379711248#2 379711248#3 379711248#4 508777085#0 521511808#0 521511808#1 521511808#2 -521511818#0 521511818#0"/>
    </vehicle>
    <vehicle id="134" depart="134.00">
        <route edges="R1 R5 R8 R38 R43 R45 379711248#2 379711248#3 379711248#4 508777085#0 508777085#1 508777085#2 508777085#3 508777391#0 508777391#1 508777391#2 521511756#0 521511756#1"/>
    </vehicle>
    <vehicle id="135" depart="135.00">
        <route edges="R4 R5 R9 R14 R19"/>
    </vehicle>
    <vehicle id="136" depart="135.00">
        <route edges="R50 R49 R44 R41 R85 R61 R65 R69 451690840#3 -451690842"/>
    </vehicle>
    <vehicle id="138" depart="140.00">
        <route edges="547746539#4 547746539#5 -547746530#1 R11 R10 R8 R38 R41 R90"/>
    </vehicle>
    <vehicle id="139" depart="143.00">
        <route edges="-521511733#0 521511733#0 521511733#1 -508777085#1 -508777085#0 379711248#5 379711248#0 379711248#1 R46 R50 R32 R29 R27"/>
    </vehicle>
    <vehicle id="140" depart="144.00">
        <route edges="R3 R65 R69 547963936#0 R71"/>
    </vehicle>
    <vehicle id="141" depart="145.00">
        <route edges="R6 R5 R8 R38 R43 R45 379711248#2 379711244#0 379711244#1"/>
    </vehicle>
    <vehicle id="142" depart="146.00">
        <route edges="99621794#1 -384145608#1 -384145608#0 -384145607 -99621717#3 -99621717#2 -99621717#1 -99621717#0 379711248#1 R46 R50 R32 R35 R16 R17 R18"/>
    </vehicle>
    <vehicle id="143" depart="146.00">
        <route edges="-521511756#1 -521511756#0 -508777391#2 -508777391#1 -508777391#0 -508777085#3 -508777085#2 -508777085#1 -508777085#0 379711248#5 379711248#0 99621717#0 99621717#1 99621717#2 99621717#3 384145607 384145608#0 384145608#1 384145606#0 R57 R55 R83 R80 R77 R74 R67 R69 547963936#0 R71"/>
    </vehicle>
    <vehicle id="144" depart="147.00">
        <route edges="R8 R38 R41 R90 R82 R77 R75 171185159#5 171185159#6 171185159#7 547665359#0 547665365#0 -547665365#0"/>
    </vehicle>
    <vehicle id="145" depart="148.00">
        <route edges="R61 R65 R68 R73 R75 R76"/>
    </vehicle>
    <vehicle id="146" depart="148.00">
        <route edges="547665379#1 R76 R78 R79 R84 R56 R58 -384145606#0 -384145608#1 -384145608#0 -384145607 -99621717#3 -99621717#2 -99621717#1 -99621717#0 379711248#1 379711248#2 379711248#3 379711248#4 508777085#0 508777085#1 508777085#2 508777085#3 508777391#0 508777391#1 508777391#2 521511756#0 521511756#1 521511756#2"/>
    </vehicle>
    <vehicle id="147" depart="150.00">
        <route edges="521511818#1 -521511818#1 -521511808#2 -521511808#1 -521511808#0 -508777085#0 379711248#5 379711248#0 379711248#1 R46 R44 R37 R7 R9 R12 -547746539#2 547746543"/>
    </vehicle>
    <vehicle id="148" depart="150.00">
        <route edges="R10 R9 R14 R19"/>
    </vehicle>
    <vehicle id="149" depart="152.00">
        <route edges="R20 R15 R36 R31 R49 R45 379711248#2 379711248#3 379711248#4 379711248#5 379711248#0 99621717#0 99621717#1 99621717#2 99621717#3 384145607 384145608#0 384145608#1 -99621794#1 521539874#0 642321527"/>
    </vehicle>
    <vehicle id="150" depart="157.00">
        <route edges="379711244#0 -133305534#0 379711242#2 379711248#4 379711248#5 379711248#0 99621717#0 99621717#1 99621717#2 99621717#3 384145607 384145608#0 384145608#1 384145606#0 R57 R55 R51 R48"/>
    </vehicle>
    <vehicle id="151" depart="157.00">
        <route edges="-521539874#0 99621794#1 -384145608#1 -384145608#0 -384145607 -99621717#3 -99621717#2 -99621717#1 -99621717#0 379711248#1 R46 R44 R37 R7 R9 R10"/>
    </vehicle>
    <vehicle id="152" depart="160.00">
        <route edges="R9 R10 R8 R38 R41 R90 R82 R77 R75 171185159#5 171185159#6 171185159#7 547665359#0 547665359#1 547665359#2 -547665360#2"/>
    </vehicle>
    <vehicle id="153" depart="162.00">
        <route edges="R1 R3 R65 R68 R73 R75 171185159#5 171185159#6 171185159#7 171185159#8 171185159#9 171185159#10 171185159#11 171185157#0 547667473"/>
    </vehicle>
    <vehicle id="155" depart="165.00">
        <route edges="-521511723 521511772 379711242#1 379711242#2 379711248#4 379711248#5 379711248#0 379711248#1 R46 R44 R41 R85 R61 R63"/>
    </vehicle>
    <vehicle id="156" depart="166.00">
        <route edges="R87 R61 R65 R69 451690840#3 451690840#4 451690840#5"/>
    </vehicle>
    <vehicle id="157" depart="166.00">
        <route edges="R73 R75 171185159#5 171185159#6 171185159#7 547665359#0 547665359#1 547665359#2 -547665358#1"/>
    </vehicle>
    <vehicle id="158" depart="168.00">
        <route edges="547665357#0 547665358#0 -547665356#1 -547665356#0 -171185159#8 -171185159#7 -171185159#6 -171185159#5 R76 R78 R79 R84 R56 R58 -384145606#0 -384145608#1 -384145608#0 -384145607 -99621717#3 -99621717#2 -99621717#1 -99621717#0 379711248#1 379711248#2 379711248#3 379711248#4 508777085#0 521511808#0 521511817#0 521511817#1 -521511817#1"/>
    </vehicle>
    <vehicle id="159" depart="169.00">
        <route edges="521511808#0 -521511808#0 -508777085#0 379711248#5 379711248#0 99621717#0 99621717#1 99621717#2 99621717#3 384145607 384145608#0 384145608#1 384145606#0 R57 R55 R83 R80 R77 R75 -547665379#1 -547665379#0 547665379#0"/>
    </vehicle>
    <vehicle id="160" depart="170.00">
        <route edges="R39 R34 R35 R103"/>
    </vehicle>
    <vehicle id="161" depart="171.00">
        <route edges="-521511820 99621717#2 99621717#3 384145607 384145608#0 384145608#1 384145606#0 R57 R55 R83 R80 R77 R74 R67 R68"/>
    </vehicle>
    <vehicle id="162" depart="172.00">
        <route edges="R6 R5 R8 R38 R43 R45 379711248#2 379711248#3 379711248#4 379711248#5 379711248#0 99621717#0 99621717#1 99621717#2 99621717#3 384145607 384145608#0 384145608#1 -99621794#1 -99621794#0"/>
    </vehicle>
    <vehicle id="163" depart="172.00">
        <route edges="R1 R5 R8 R38 R43 R45 379711248#2 379711248#3 379711248#4 508777085#0 508777085#1 508777085#2 508777085#3 508777391#0 508777391#1 508777391#2 521511756#0 521511756#1 521511756#2 521511756#3 -521511740 -521511743#2"/>
    </vehicle>
    <vehicle id="164" depart="173.00">
        <route edges="-547746539#6 -547746530#1 R11 R10 R6 R3 R65 R69 547963936#0 R71"/>
    </vehicle>
    <vehicle id="165" depart="173.00">
        <route edges="R76 R78 R81 R89 R42 R43 R50 R32 R29 R26 R98 -133305550"/>
    </vehicle>
    <vehicle id="166" depart="174.00">
        <route edges="-521539874#0 99621794#1 -99621794#1"/>
    </vehicle>
    <vehicle id="167" depart="174.00">
        <route edges="R33 R38 R41 R85 R61 R65 R69 451690840#3 451690840#4 451690840#5 -451690840#5"/>
    </vehicle>