<?xml version="1.0" encoding="UTF-8"?>
<!-- generated on 2019-07-06 15:33:15.140119 by $Id$
  options: -n gwalior1.net.xml -r gwalior2.rou.xml -e 200 -l
-->
<routes xmlns:xsi="http://www.w3.org/2001/XMLSchema-instance" xsi:noNamespaceSchemaLocation="http://sumo.dlr.de/xsd/routes_file.xsd">
    <trip id="0" depart="0.00" from="521511821#12" to="521511723"/>
    <trip id="1" depart="1.00" from="R68" to="171185157#1"/>
    <trip id="2" depart="2.00" from="547669017#1" to="R3"/>
    <trip id="3" depart="3.00" from="-547665377#0" to="-95658115"/>
    <trip id="4" depart="4.00" from="521511818#0" to="R41"/>
    <trip id="5" depart="5.00" from="-547665322" to="379711242#2"/>
    <trip id="6" depart="6.00" from="R44" to="R3"/>
    <trip id="7" depart="7.00" from="379711242#1" to="R93"/>
    <trip id="8" depart="8.00" from="547667474" to="-521511808#0"/>
    <trip id="9" depart="9.00" from="R1" to="-521511733#1"/>
    <trip id="10" depart="10.00" from="R18" to="R15"/>
    <trip id="11" depart="11.00" from="R89" to="-451690842"/>
    <trip id="12" depart="12.00" from="R72" to="R4"/>
    <trip id="13" depart="13.00" from="521511773" to="521511808#0"/>
    <trip id="14" depart="14.00" from="R38" to="R49"/>
    <trip id="15" depart="15.00" from="R5" to="R86"/>
    <trip id="16" depart="16.00" from="95658123#1" to="R73"/>
    <trip id="17" depart="17.00" from="R6" to="R93"/>
    <trip id="18" depart="18.00" from="R71" to="R9"/>
    <trip id="19" depart="19.00" from="508777085#1" to="521511742#1"/>
    <trip id="20" depart="20.00" from="-521511723" to="451690840#5"/>
    <trip id="21" depart="21.00" from="-521511723" to="95658123#0"/>
    <trip id="22" depart="22.00" from="521511741" to="R86"/>
    <trip id="23" depart="23.00" from="-171185159#5" to="R71"/>
    <trip id="24" depart="24.00" from="R42" to="-451690842"/>
    <trip id="25" depart="25.00" from="R47" to="-547665371#0"/>
    <trip id="26" depart="26.00" from="-95658115" to="95658123#0"/>
    <trip id="27" depart="27.00" from="R89" to="R41"/>
    <trip id="28" depart="28.00" from="R82" to="R87"/>
    <trip id="29" depart="29.00" from="-547963935" to="R72"/>
    <trip id="30" depart="30.00" from="547746539#5" to="-99621794#0"/>
    <trip id="31" depart="31.00" from="547667477#1" to="-99621794#1"/>
    <trip id="32" depart="32.00" from="R36" to="521511817#0"/>
    <trip id="33" depart="33.00" from="547665356#0" to="-451690842"/>
    <trip id="34" depart="34.00" from="R3" to="-521511818#0"/>
    <trip id="35" depart="35.00" from="R83" to="R2"/>
    <trip id="36" depart="36.00" from="133305550" to="547746534#1"/>
    <trip id="37" depart="37.00" from="R73" to="R2"/>
    <trip id="38" depart="38.00" from="521511798#0" to="R68"/>
    <trip id="39" depart="39.00" from="-547665379#0" to="95658115"/>
    <trip id="40" depart="40.00" from="-547665360#1" to="R67"/>
    <trip id="41" depart="41.00" from="95658115" to="R22"/>
    <trip id="42" depart="42.00" from="R4" to="R46"/>
    <trip id="43" depart="43.00" from="547665379#1" to="-547746545"/>
    <trip id="44" depart="44.00" from="R86" to="R8"/>
    <trip id="45" depart="45.00" from="-171185159#13" to="-547665357#0"/>
    <trip id="46" depart="46.00" from="R91" to="547665371#1"/>
    <trip id="47" depart="47.00" from="R4" to="R103"/>
    <trip id="48" depart="48.00" from="-521511733#0" to="95658123#0"/>
    <trip id="49" depart="49.00" from="R48" to="-521511773"/>
    <trip id="50" depart="50.00" from="508777085#2" to="R85"/>
    <trip id="51" depart="51.00" from="R20" to="R37"/>
    <trip id="52" depart="52.00" from="R1" to="-547665360#2"/>
    <trip id="53" depart="53.00" from="R6" to="R88"/>
    <trip id="54" depart="54.00" from="R3" to="R73"/>
    <trip id="55" depart="55.00" from="521511732" to="R2"/>
    <trip id="56" depart="56.00" from="R94" to="-521511772"/>
    <trip id="57" depart="57.00" from="-547665355" to="-95658123#0"/>
    <trip id="58" depart="58.00" from="R89" to="R63"/>
    <trip id="59" depart="59.00" from="521511821#0" to="R86"/>
    <trip id="60" depart="60.00" from="-547963936#0" to="R46"/>
    <trip id="61" depart="61.00" from="379711242#1" to="-95658115"/>
    <trip id="62" depart="62.00" from="R39" to="R3"/>
    <trip id="63" depart="63.00" from="R4" to="-451690842"/>
    <trip id="64" depart="64.00" from="R72" to="521707478"/>
    <trip id="65" depart="65.00" from="547746543" to="171185157#0"/>
    <trip id="66" depart="66.00" from="508777085#0" to="521539874#0"/>
    <trip id="67" depart="67.00" from="R71" to="521511799#0"/>
    <trip id="68" depart="68.00" from="547665371#1" to="R72"/>
    <trip id="69" depart="69.00" from="R3" to="171185159#13"/>
    <trip id="70" depart="70.00" from="95658123#0" to="-95658123#0"/>
    <trip id="71" depart="71.00" from="R67" to="-547665360#2"/>
    <trip id="72" depart="72.00" from="-547665371#0" to="R32"/>
    <trip id="73" depart="73.00" from="R64" to="R81"/>
    <trip id="74" depart="74.00" from="451690840#5" to="171185159#13"/>
    <trip id="75" depart="75.00" from="-521511815#0" to="-521511821#12"/>
    <trip id="76" depart="76.00" from="R36" to="R86"/>
    <trip id="77" depart="77.00" from="547746530#1" to="R74"/>
    <trip id="78" depart="78.00" from="R66" to="-521511808#0"/>
    <trip id="79" depart="79.00" from="521511736" to="R5"/>
    <trip id="80" depart="80.00" from="R73" to="521707476#1"/>
    <trip id="81" depart="81.00" from="-521511773" to="R73"/>
    <trip id="82" depart="82.00" from="451690842" to="R80"/>
    <trip id="83" depart="83.00" from="R95" to="-547665379#1"/>
    <trip id="84" depart="84.00" from="R21" to="451690840#6"/>
    <trip id="85" depart="85.00" from="521511821#0" to="547665373#0"/>
    <trip id="86" depart="86.00" from="-547963936#0" to="R2"/>
    <trip id="87" depart="87.00" from="521511811#2" to="R40"/>
    <trip id="88" depart="88.00" from="-521511733#1" to="547665371#1"/>
    <trip id="89" depart="89.00" from="R66" to="R7"/>
    <trip id="90" depart="90.00" from="-547746530#1" to="R5"/>
    <trip id="91" depart="91.00" from="R10" to="R19"/>
    <trip id="92" depart="92.00" from="R35" to="-547746539#6"/>
    <trip id="93" depart="93.00" from="R62" to="R85"/>
    <trip id="94" depart="94.00" from="-547667474" to="521511789"/>
    <trip id="95" depart="95.00" from="R48" to="-95658115"/>
    <trip id="96" depart="96.00" from="R1" to="-95658115"/>
    <trip id="97" depart="97.00" from="521511783" to="R62"/>
    <trip id="98" depart="98.00" from="-547665359#3" to="R4"/>
    <trip id="99" depart="99.00" from="95658115" to="R87"/>
    <trip id="100" depart="100.00" from="R4" to="521511803#3"/>
    <trip id="101" depart="101.00" from="-521511808#0" to="547665361"/>
    <trip id="102" depart="102.00" from="R87" to="521707476#1"/>
    <trip id="103" depart="103.00" from="-547667477#1" to="95658123#0"/>
    <trip id="104" depart="104.00" from="R65" to="547746536#1"/>
    <trip id="105" depart="105.00" from="99621794#0" to="R48"/>
    <trip id="106" depart="106.00" from="95658115" to="547665322"/>
    <trip id="107" depart="107.00" from="R45" to="99621794#1"/>
    <trip id="108" depart="108.00" from="521511815#0" to="R81"/>
    <trip id="109" depart="109.00" from="R85" to="-547746539#5"/>
    <trip id="110" depart="110.00" from="R49" to="R87"/>
    <trip id="111" depart="111.00" from="R4" to="547667474"/>
    <trip id="112" depart="112.00" from="R11" to="R23"/>
    <trip id="113" depart="113.00" from="R85" to="R67"/>
    <trip id="114" depart="114.00" from="-171185159#9" to="521511773"/>
    <trip id="115" depart="115.00" from="99621794#0" to="-521539874#0"/>
    <trip id="116" depart="116.00" from="-547746539#4" to="95658115"/>
    <trip id="117" depart="117.00" from="R75" to="547746543"/>
    <trip id="118" depart="118.00" from="-521511784" to="-99621794#0"/>
    <trip id="119" depart="119.00" from="547746539#4" to="451690840#3"/>
    <trip id="120" depart="120.00" from="547665379#1" to="451690840#3"/>
    <trip id="121" depart="121.00" from="-171185157#1" to="R85"/>
    <trip id="122" depart="122.00" from="R49" to="R21"/>
    <trip id="123" depart="123.00" from="99621794#0" to="R6"/>
    <trip id="124" depart="124.00" from="521511733#1" to="-547665373#0"/>
    <trip id="125" depart="125.00" from="R4" to="95658115"/>
    <trip id="126" depart="126.00" from="-521707480#0" to="-547665371#1"/>
    <trip id="127" depart="127.00" from="-521511817#0" to="-171185157#0"/>
    <trip id="128" depart="128.00" from="451690842" to="R3"/>
    <trip id="129" depart="129.00" from="R5" to="R2"/>
    <trip id="130" depart="130.00" from="95658115" to="R18"/>
    <trip id="131" depart="131.00" from="451690842" to="R87"/>
    <trip id="132" depart="132.00" from="-521511773" to="R3"/>
    <trip id="133" depart="133.00" from="-99621794#1" to="R40"/>
    <trip id="134" depart="134.00" from="R62" to="-547665356#0"/>
    <trip id="135" depart="135.00" from="R61" to="384145608#1"/>
    <trip id="136" depart="136.00" from="451690840#5" to="R7"/>
    <trip id="137" depart="137.00" from="R17" to="451690840#6"/>
    <trip id="138" depart="138.00" from="R3" to="R42"/>
    <trip id="139" depart="139.00" from="-451690840#6" to="508777391#3"/>
    <trip id="140" depart="140.00" from="R85" to="-451690840#3"/>
    <trip id="141" depart="141.00" from="R47" to="547665379#1"/>
    <trip id="142" depart="142.00" from="R32" to="171185157#1"/>
    <trip id="143" depart="143.00" from="R48" to="-95658115"/>
    <trip id="144" depart="144.00" from="547746539#7" to="-547746545"/>
    <trip id="145" depart="145.00" from="R24" to="547665322"/>
    <trip id="146" depart="146.00" from="R20" to="-451690842"/>
    <trip id="147" depart="147.00" from="R48" to="R40"/>
    <trip id="148" depart="148.00" from="R64" to="547665371#1"/>
    <trip id="149" depart="149.00" from="R96" to="521511772"/>
    <trip id="150" depart="150.00" from="521539874#0" to="R2"/>
    <trip id="151" depart="151.00" from="R62" to="547665369#0"/>
    <trip id="152" depart="152.00" from="-171185157#0" to="171185159#5"/>
    <trip id="153" depart="153.00" from="R28" to="-95658123#0"/>
    <trip id="154" depart="154.00" from="-547667473" to="521511789"/>
    <trip id="155" depart="155.00" from="R71" to="R2"/>
    <trip id="156" depart="156.00" from="-171185159#5" to="547665371#0"/>
    <trip id="157" depart="157.00" from="R10" to="521511813#0"/>
    <trip id="158" depart="158.00" from="-451690840#6" to="R63"/>
    <trip id="159" depart="159.00" from="R69" to="95658123#0"/>
    <trip id="160" depart="160.00" from="-99621794#1" to="95658115"/>
    <trip id="161" depart="161.00" from="95658115" to="R85"/>
    <trip id="162" depart="162.00" from="R1" to="R47"/>
    <trip id="163" depart="163.00" from="95658123#0" to="R4"/>
    <trip id="164" depart="164.00" from="R6" to="521511817#2"/>
    <trip id="165" depart="165.00" from="R92" to="99621794#1"/>
    <trip id="166" depart="166.00" from="451690842" to="547665379#1"/>
    <trip id="167" depart="167.00" from="547665373#1" to="521511817#5"/>
    <trip id="168" depart="168.00" from="547746539#4" to="-521511746#0"/>
    <trip id="169" depart="169.00" from="-547746536#1" to="R95"/>
    <trip id="170" depart="170.00" from="95658123#0" to="-99621794#1"/>
    <trip id="171" depart="171.00" from="R16" to="-521539874#0"/>
    <trip id="172" depart="172.00" from="95658123#0" to="-99621794#0"/>
    <trip id="173" depart="173.00" from="-547667473" to="-99621794#0"/>
    <trip id="174" depart="174.00" from="521707476#1" to="-95658123#0"/>
    <trip id="175" depart="175.00" from="-384145608#1" to="R65"/>
    <trip id="176" depart="176.00" from="R21" to="521511788"/>
    <trip id="177" depart="177.00" from="R84" to="R22"/>
    <trip id="178" depart="178.00" from="R86" to="-99621794#1"/>
    <trip id="179" depart="179.00" from="-521511788" to="R96"/>
    <trip id="180" depart="180.00" from="-521511808#1" to="-171185159#8"/>
    <trip id="181" depart="181.00" from="384145608#1" to="R18"/>
    <trip id="182" depart="182.00" from="-521511803#6" to="R72"/>
    <trip id="183" depart="183.00" from="-547746539#4" to="547665369#1"/>
    <trip id="184" depart="184.00" from="-171185159#13" to="R5"/>
    <trip id="185" depart="185.00" from="547665377#0" to="384145608#1"/>
    <trip id="186" depart="186.00" from="R69" to="547665379#1"/>
    <trip id="187" depart="187.00" from="R3" to="-547746530#3"/>
    <trip id="188" depart="188.00" from="-521511733#0" to="-521511742#0"/>
    <trip id="189" depart="189.00" from="-547746530#4" to="379711244#1"/>
    <trip id="190" depart="190.00" from="-171185159#13" to="R63"/>
    <trip id="191" depart="191.00" from="R36" to="R13"/>
    <trip id="192" depart="192.00" from="451690842" to="-171185157#0"/>
    <trip id="193" depart="193.00" from="547746539#1" to="521511803#3"/>
    <trip id="194" depart="194.00" from="99621794#0" to="R5"/>
    <trip id="195" depart="195.00" from="-99621794#1" to="R63"/>
    <trip id="196" depart="196.00" from="R46" to="R42"/>
    <trip id="197" depart="197.00" from="R42" to="R4"/>
    <trip id="198" depart="198.00" from="R5" to="95658123#1"/>
    <trip id="199" depart="199.00" from="521511821#0" to="R73"/>
</routes>
